444913
  Marvin  12310709493D          

126 132  0  0  1  0            999 V2000
    0.3915    1.0465    2.0599 O   0  0  0  0  0  0  0  0  0  0  0  0
   -0.0700    5.3587    1.1793 O   0  0  0  0  0  0  0  0  0  0  0  0
    1.9789   -4.0292    1.0021 O   0  0  0  0  0  0  0  0  0  0  0  0
   -2.2607    3.8321   -2.0137 O   0  0  0  0  0  0  0  0  0  0  0  0
    2.4381   -5.1268   -2.2661 O   0  0  0  0  0  0  0  0  0  0  0  0
   -0.4288   -0.2936   -3.1379 O   0  0  0  0  0  0  0  0  0  0  0  0
    0.0986   -1.1209    1.9830 O   0  0  0  0  0  0  0  0  0  0  0  0
   -1.1400    4.2354    3.0154 O   0  0  0  0  0  0  0  0  0  0  0  0
    1.0181   -6.1227    0.5438 O   0  0  0  0  0  0  0  0  0  0  0  0
   -3.2838    5.6397   -0.7930 O   0  0  0  0  0  0  0  0  0  0  0  0
    1.9421   -3.0632   -3.2604 O   0  0  0  0  0  0  0  0  0  0  0  0
   -1.7096    0.9045   -1.4772 O   0  0  0  0  0  0  0  0  0  0  0  0
    2.7302    2.6967    3.1291 O   0  0  0  0  0  0  0  0  0  0  0  0
    3.9812   -2.0583    0.9129 O   0  0  0  0  0  0  0  0  0  0  0  0
    0.6672    6.8413   -1.2020 O   0  0  0  0  0  0  0  0  0  0  0  0
    4.8195   -7.0415   -0.2942 O   0  0  0  0  0  0  0  0  0  0  0  0
   -4.3488    1.4446   -3.8810 O   0  0  0  0  0  0  0  0  0  0  0  0
   -1.5377   -2.3301   -1.0765 O   0  0  0  0  0  0  0  0  0  0  0  0
    2.7803    0.6570    0.8943 O   0  0  0  0  0  0  0  0  0  0  0  0
    2.2952    5.5255    2.7202 O   0  0  0  0  0  0  0  0  0  0  0  0
    4.2906   -5.1754    2.0715 O   0  0  0  0  0  0  0  0  0  0  0  0
   -0.8046    5.8697   -3.4779 O   0  0  0  0  0  0  0  0  0  0  0  0
   -0.4051   -4.9519   -2.3742 O   0  0  0  0  0  0  0  0  0  0  0  0
   -0.7699    2.2665   -3.9005 O   0  0  0  0  0  0  0  0  0  0  0  0
   -3.4689    2.7253    2.5235 O   0  0  0  0  0  0  0  0  0  0  0  0
   -1.6193   -2.8214    3.5178 O   0  0  0  0  0  0  0  0  0  0  0  0
   -3.6735    7.5068    1.2803 O   0  0  0  0  0  0  0  0  0  0  0  0
    0.2062   -8.8181   -0.0080 O   0  0  0  0  0  0  0  0  0  0  0  0
   -3.7088   -0.0730    0.4264 O   0  0  0  0  0  0  0  0  0  0  0  0
    3.8008   -0.8929   -3.8147 O   0  0  0  0  0  0  0  0  0  0  0  0
    0.3363    2.2299    2.8801 C   0  0  1  0  0  0  0  0  0  0  0  0
   -1.0516    6.0427    0.3680 C   0  0  1  0  0  0  0  0  0  0  0  0
    1.8806   -2.9055    1.8960 C   0  0  1  0  0  0  0  0  0  0  0  0
   -3.2402    2.7782   -2.1352 C   0  0  1  0  0  0  0  0  0  0  0  0
    2.7160   -6.1877   -1.3025 C   0  0  1  0  0  0  0  0  0  0  0  0
    0.2535   -1.3271   -2.3954 C   0  0  1  0  0  0  0  0  0  0  0  0
    1.5139    3.2034    2.5839 C   0  0  1  0  0  0  0  0  0  0  0  0
    2.6119   -1.7437    1.1661 C   0  0  1  0  0  0  0  0  0  0  0  0
   -0.4207    5.9278   -1.0562 C   0  0  1  0  0  0  0  0  0  0  0  0
    3.8526   -5.9864   -0.2361 C   0  0  1  0  0  0  0  0  0  0  0  0
   -3.1969    2.2359   -3.5924 C   0  0  1  0  0  0  0  0  0  0  0  0
   -0.5833   -2.5968   -2.1065 C   0  0  1  0  0  0  0  0  0  0  0  0
    1.0489   -0.1580    2.4713 C   0  0  1  0  0  0  0  0  0  0  0  0
   -0.1285    5.1730    2.6047 C   0  0  1  0  0  0  0  0  0  0  0  0
    1.9502   -5.4081    1.3927 C   0  0  1  0  0  0  0  0  0  0  0  0
   -2.6545    5.2234   -2.0178 C   0  0  1  0  0  0  0  0  0  0  0  0
    1.7813   -3.8467   -2.0663 C   0  0  1  0  0  0  0  0  0  0  0  0
   -1.6874    0.3115   -2.7938 C   0  0  1  0  0  0  0  0  0  0  0  0
    2.4650   -0.3583    1.8507 C   0  0  2  0  0  0  0  0  0  0  0  0
    1.2431    4.6434    3.1065 C   0  0  2  0  0  0  0  0  0  0  0  0
    3.3970   -5.9358    1.2597 C   0  0  2  0  0  0  0  0  0  0  0  0
   -1.4217    6.1368   -2.2199 C   0  0  2  0  0  0  0  0  0  0  0  0
    0.2548   -3.8636   -1.7380 C   0  0  2  0  0  0  0  0  0  0  0  0
   -1.9128    1.4079   -3.8698 C   0  0  2  0  0  0  0  0  0  0  0  0
    0.3868   -2.5221    2.1608 C   0  0  1  0  0  0  0  0  0  0  0  0
   -1.0249    2.8875    2.5130 C   0  0  1  0  0  0  0  0  0  0  0  0
    1.4574   -6.8288   -0.6436 C   0  0  1  0  0  0  0  0  0  0  0  0
   -2.5251    5.5030    0.4280 C   0  0  1  0  0  0  0  0  0  0  0  0
    1.5334   -1.6703   -3.2364 C   0  0  1  0  0  0  0  0  0  0  0  0
   -2.8916    1.6552   -1.1050 C   0  0  1  0  0  0  0  0  0  0  0  0
   -2.2739    2.1162    3.0042 C   0  0  0  0  0  0  0  0  0  0  0  0
   -0.2109   -3.0355    3.4908 C   0  0  0  0  0  0  0  0  0  0  0  0
   -3.4055    6.1321    1.5368 C   0  0  0  0  0  0  0  0  0  0  0  0
    1.5039   -8.3545   -0.3776 C   0  0  0  0  0  0  0  0  0  0  0  0
   -4.0760    0.7488   -0.6772 C   0  0  0  0  0  0  0  0  0  0  0  0
    2.7234   -0.7366   -2.9004 C   0  0  0  0  0  0  0  0  0  0  0  0
    0.3189    1.9949    3.9490 H   0  0  0  0  0  0  0  0  0  0  0  0
   -1.0555    7.1018    0.6418 H   0  0  0  0  0  0  0  0  0  0  0  0
    2.4178   -3.0917    2.8310 H   0  0  0  0  0  0  0  0  0  0  0  0
   -4.2416    3.1670   -1.9201 H   0  0  0  0  0  0  0  0  0  0  0  0
    3.0987   -6.9230   -2.0160 H   0  0  0  0  0  0  0  0  0  0  0  0
    0.5383   -0.9014   -1.4295 H   0  0  0  0  0  0  0  0  0  0  0  0
    1.6628    3.2554    1.5013 H   0  0  0  0  0  0  0  0  0  0  0  0
    2.1411   -1.6387    0.1901 H   0  0  0  0  0  0  0  0  0  0  0  0
    0.0080    4.9286   -1.1930 H   0  0  0  0  0  0  0  0  0  0  0  0
    4.3917   -5.0699   -0.4860 H   0  0  0  0  0  0  0  0  0  0  0  0
   -3.2359    3.0724   -4.2960 H   0  0  0  0  0  0  0  0  0  0  0  0
   -1.1605   -2.7868   -3.0169 H   0  0  0  0  0  0  0  0  0  0  0  0
    1.0896   -0.2468    3.5612 H   0  0  0  0  0  0  0  0  0  0  0  0
   -0.3333    6.1324    3.0861 H   0  0  0  0  0  0  0  0  0  0  0  0
    1.5891   -5.5243    2.4167 H   0  0  0  0  0  0  0  0  0  0  0  0
   -3.3574    5.4146   -2.8334 H   0  0  0  0  0  0  0  0  0  0  0  0
    2.3705   -3.3370   -1.3109 H   0  0  0  0  0  0  0  0  0  0  0  0
   -2.4681   -0.4494   -2.8816 H   0  0  0  0  0  0  0  0  0  0  0  0
    3.2083   -0.2719    2.6472 H   0  0  0  0  0  0  0  0  0  0  0  0
    1.2302    4.6222    4.2004 H   0  0  0  0  0  0  0  0  0  0  0  0
    3.3890   -6.9389    1.6967 H   0  0  0  0  0  0  0  0  0  0  0  0
   -1.7456    7.1822   -2.2329 H   0  0  0  0  0  0  0  0  0  0  0  0
    0.1621   -4.0457   -0.6739 H   0  0  0  0  0  0  0  0  0  0  0  0
   -1.9852    0.9419   -4.8571 H   0  0  0  0  0  0  0  0  0  0  0  0
   -0.2199   -2.9830    1.3802 H   0  0  0  0  0  0  0  0  0  0  0  0
   -1.0687    2.9112    1.4226 H   0  0  0  0  0  0  0  0  0  0  0  0
    0.6622   -6.7806   -1.3802 H   0  0  0  0  0  0  0  0  0  0  0  0
   -2.4975    4.4362    0.6175 H   0  0  0  0  0  0  0  0  0  0  0  0
    1.3053   -1.4979   -4.2931 H   0  0  0  0  0  0  0  0  0  0  0  0
   -2.6135    2.1645   -0.1844 H   0  0  0  0  0  0  0  0  0  0  0  0
   -2.2590    1.0839    2.6502 H   0  0  0  0  0  0  0  0  0  0  0  0
   -2.3100    2.1058    4.0953 H   0  0  0  0  0  0  0  0  0  0  0  0
    0.2380   -2.5191    4.3403 H   0  0  0  0  0  0  0  0  0  0  0  0
   -0.0355   -4.1059    3.6050 H   0  0  0  0  0  0  0  0  0  0  0  0
   -4.3624    5.6082    1.5975 H   0  0  0  0  0  0  0  0  0  0  0  0
   -2.9331    6.0615    2.5161 H   0  0  0  0  0  0  0  0  0  0  0  0
    1.7997   -8.8944   -1.2811 H   0  0  0  0  0  0  0  0  0  0  0  0
    2.2041   -8.6108    0.4160 H   0  0  0  0  0  0  0  0  0  0  0  0
   -4.9284    1.3565   -0.3648 H   0  0  0  0  0  0  0  0  0  0  0  0
   -4.4046    0.1022   -1.4907 H   0  0  0  0  0  0  0  0  0  0  0  0
    2.4093    0.3097   -2.9291 H   0  0  0  0  0  0  0  0  0  0  0  0
    3.1051   -0.9473   -1.9020 H   0  0  0  0  0  0  0  0  0  0  0  0
    2.5815    2.6364    4.0958 H   0  0  0  0  0  0  0  0  0  0  0  0
    4.3908   -2.1778    1.7950 H   0  0  0  0  0  0  0  0  0  0  0  0
    1.3107    6.5962   -0.5042 H   0  0  0  0  0  0  0  0  0  0  0  0
    5.1457   -7.0762   -1.2167 H   0  0  0  0  0  0  0  0  0  0  0  0
   -5.1125    2.0513   -3.7803 H   0  0  0  0  0  0  0  0  0  0  0  0
   -1.9914   -3.1833   -0.9065 H   0  0  0  0  0  0  0  0  0  0  0  0
    3.6918    0.4654    0.5872 H   0  0  0  0  0  0  0  0  0  0  0  0
    2.0645    6.3915    3.1185 H   0  0  0  0  0  0  0  0  0  0  0  0
    5.1546   -5.6339    2.0120 H   0  0  0  0  0  0  0  0  0  0  0  0
   -1.4951    6.0584   -4.1480 H   0  0  0  0  0  0  0  0  0  0  0  0
   -1.2154   -5.0891   -1.8371 H   0  0  0  0  0  0  0  0  0  0  0  0
   -0.9303    2.8995   -4.6302 H   0  0  0  0  0  0  0  0  0  0  0  0
   -4.2038    2.1845    2.8808 H   0  0  0  0  0  0  0  0  0  0  0  0
   -1.9252   -3.2135    4.3620 H   0  0  0  0  0  0  0  0  0  0  0  0
   -4.2432    7.7984    2.0230 H   0  0  0  0  0  0  0  0  0  0  0  0
    0.2793   -9.7922    0.0578 H   0  0  0  0  0  0  0  0  0  0  0  0
   -4.5255   -0.5578    0.6699 H   0  0  0  0  0  0  0  0  0  0  0  0
    4.4861   -0.2689   -3.4942 H   0  0  0  0  0  0  0  0  0  0  0  0
  1 31  1  0  0  0  0
  1 43  1  0  0  0  0
  2 32  1  0  0  0  0
  2 44  1  0  0  0  0
  3 33  1  0  0  0  0
  3 45  1  0  0  0  0
  4 34  1  0  0  0  0
  4 46  1  0  0  0  0
  5 35  1  0  0  0  0
  5 47  1  0  0  0  0
  6 36  1  0  0  0  0
  6 48  1  0  0  0  0
  7 43  1  0  0  0  0
  7 55  1  0  0  0  0
  8 44  1  0  0  0  0
  8 56  1  0  0  0  0
  9 45  1  0  0  0  0
  9 57  1  0  0  0  0
 10 46  1  0  0  0  0
 10 58  1  0  0  0  0
 11 47  1  0  0  0  0
 11 59  1  0  0  0  0
 12 48  1  0  0  0  0
 12 60  1  0  0  0  0
 37 13  1  0  0  0  0
 13109  1  0  0  0  0
 38 14  1  0  0  0  0
 14110  1  0  0  0  0
 39 15  1  0  0  0  0
 15111  1  0  0  0  0
 40 16  1  0  0  0  0
 16112  1  0  0  0  0
 41 17  1  0  0  0  0
 17113  1  0  0  0  0
 42 18  1  0  0  0  0
 18114  1  0  0  0  0
 49 19  1  0  0  0  0
 19115  1  0  0  0  0
 50 20  1  0  0  0  0
 20116  1  0  0  0  0
 51 21  1  0  0  0  0
 21117  1  0  0  0  0
 52 22  1  0  0  0  0
 22118  1  0  0  0  0
 53 23  1  0  0  0  0
 23119  1  0  0  0  0
 54 24  1  0  0  0  0
 24120  1  0  0  0  0
 25 61  1  0  0  0  0
 25121  1  0  0  0  0
 26 62  1  0  0  0  0
 26122  1  0  0  0  0
 27 63  1  0  0  0  0
 27123  1  0  0  0  0
 28 64  1  0  0  0  0
 28124  1  0  0  0  0
 29 65  1  0  0  0  0
 29125  1  0  0  0  0
 30 66  1  0  0  0  0
 30126  1  0  0  0  0
 31 37  1  0  0  0  0
 31 56  1  0  0  0  0
 31 67  1  0  0  0  0
 32 39  1  0  0  0  0
 32 58  1  0  0  0  0
 32 68  1  0  0  0  0
 33 38  1  0  0  0  0
 33 55  1  0  0  0  0
 33 69  1  0  0  0  0
 34 41  1  0  0  0  0
 34 60  1  0  0  0  0
 34 70  1  0  0  0  0
 35 40  1  0  0  0  0
 35 57  1  0  0  0  0
 35 71  1  0  0  0  0
 36 42  1  0  0  0  0
 36 59  1  0  0  0  0
 36 72  1  0  0  0  0
 37 50  1  0  0  0  0
 37 73  1  0  0  0  0
 38 49  1  0  0  0  0
 38 74  1  0  0  0  0
 39 52  1  0  0  0  0
 39 75  1  0  0  0  0
 40 51  1  0  0  0  0
 40 76  1  0  0  0  0
 41 54  1  0  0  0  0
 41 77  1  0  0  0  0
 42 53  1  0  0  0  0
 42 78  1  0  0  0  0
 43 49  1  0  0  0  0
 43 79  1  0  0  0  0
 44 50  1  0  0  0  0
 44 80  1  0  0  0  0
 45 51  1  0  0  0  0
 45 81  1  0  0  0  0
 46 52  1  0  0  0  0
 46 82  1  0  0  0  0
 47 53  1  0  0  0  0
 47 83  1  0  0  0  0
 48 54  1  0  0  0  0
 48 84  1  0  0  0  0
 49 85  1  0  0  0  0
 50 86  1  0  0  0  0
 51 87  1  0  0  0  0
 52 88  1  0  0  0  0
 53 89  1  0  0  0  0
 54 90  1  0  0  0  0
 55 62  1  0  0  0  0
 55 91  1  0  0  0  0
 56 61  1  0  0  0  0
 56 92  1  0  0  0  0
 57 64  1  0  0  0  0
 57 93  1  0  0  0  0
 58 63  1  0  0  0  0
 58 94  1  0  0  0  0
 59 66  1  0  0  0  0
 59 95  1  0  0  0  0
 60 65  1  0  0  0  0
 60 96  1  0  0  0  0
 61 97  1  0  0  0  0
 61 98  1  0  0  0  0
 62 99  1  0  0  0  0
 62100  1  0  0  0  0
 63101  1  0  0  0  0
 63102  1  0  0  0  0
 64103  1  0  0  0  0
 64104  1  0  0  0  0
 65105  1  0  0  0  0
 65106  1  0  0  0  0
 66107  1  0  0  0  0
 66108  1  0  0  0  0
M  END
