
  Marvin  01010805563D          

 77 84  0  0  1  0            999 V2000
   -1.2738   -2.5111   -5.1585 C   0  0  2  0  0  0  0  0  0  0  0  0
   -5.8332   -2.1379   -2.3387 C   0  0  2  0  0  0  0  0  0  0  0  0
    3.1221   -1.7893   -3.4267 C   0  0  2  0  0  0  0  0  0  0  0  0
   -2.9724   -1.1940    1.6592 C   0  0  2  0  0  0  0  0  0  0  0  0
    3.8845    2.2437   -0.1515 C   0  0  2  0  0  0  0  0  0  0  0  0
    0.2996    0.3262    5.0500 C   0  0  2  0  0  0  0  0  0  0  0  0
    2.5963    3.1607    4.5250 C   0  0  2  0  0  0  0  0  0  0  0  0
    1.5019   -1.3833   -5.1850 C   0  0  1  0  0  0  0  0  0  0  0  0
   -0.7713   -0.3231    2.3551 C   0  0  1  0  0  0  0  0  0  0  0  0
   -5.3909   -1.3745   -0.0697 C   0  0  1  0  0  0  0  0  0  0  0  0
    2.4962    3.7151    2.0888 C   0  0  1  0  0  0  0  0  0  0  0  0
   -3.6265   -2.5989   -4.3392 C   0  0  1  0  0  0  0  0  0  0  0  0
    1.2717    1.7614    6.8488 C   0  0  1  0  0  0  0  0  0  0  0  0
    4.3912    0.0560   -1.4302 C   0  0  1  0  0  0  0  0  0  0  0  0
    4.6843    1.0845   -0.4606 O   0  0  0  0  0  0  0  0  0  0  0  0
    1.7969   -1.3798   -3.7790 O   0  0  0  0  0  0  0  0  0  0  0  0
   -1.6442   -1.4438    2.1436 O   0  0  0  0  0  0  0  0  0  0  0  0
    2.6536    2.7631    3.1472 O   0  0  0  0  0  0  0  0  0  0  0  0
    0.6568    0.5087    6.4330 O   0  0  0  0  0  0  0  0  0  0  0  0
   -5.1197   -2.3175   -1.1075 O   0  0  0  0  0  0  0  0  0  0  0  0
   -2.2645   -3.0557   -4.2790 O   0  0  0  0  0  0  0  0  0  0  0  0
    3.2116   -2.2339   -1.9387 C   0  0  1  0  0  0  0  0  0  0  0  0
   -0.0647   -3.4957   -5.2133 C   0  0  1  0  0  0  0  0  0  0  0  0
   -1.1888    0.6669    4.7806 C   0  0  1  0  0  0  0  0  0  0  0  0
   -3.7796   -2.5158    1.6706 C   0  0  1  0  0  0  0  0  0  0  0  0
   -5.8154   -3.4648   -3.1455 C   0  0  1  0  0  0  0  0  0  0  0  0
    4.7294    3.0835    0.8594 C   0  0  1  0  0  0  0  0  0  0  0  0
    3.4181    2.1028    5.3358 C   0  0  1  0  0  0  0  0  0  0  0  0
   -1.3483    0.8347    3.2485 C   0  0  1  0  0  0  0  0  0  0  0  0
    3.3879   -1.0391   -0.9609 C   0  0  1  0  0  0  0  0  0  0  0  0
    1.2275   -2.8208   -5.7516 C   0  0  1  0  0  0  0  0  0  0  0  0
    3.9016    4.1823    1.5869 C   0  0  1  0  0  0  0  0  0  0  0  0
   -5.2442   -2.2309    1.2273 C   0  0  1  0  0  0  0  0  0  0  0  0
    2.8241    1.6950    6.7091 C   0  0  1  0  0  0  0  0  0  0  0  0
   -4.3686   -3.7675   -3.6236 C   0  0  1  0  0  0  0  0  0  0  0  0
   -3.0705   -0.5320    0.3684 O   0  0  0  0  0  0  0  0  0  0  0  0
    4.0965   -0.7557   -3.7235 O   0  0  0  0  0  0  0  0  0  0  0  0
    0.6248   -0.9310    4.4109 O   0  0  0  0  0  0  0  0  0  0  0  0
    1.1910    3.2718    4.8845 O   0  0  0  0  0  0  0  0  0  0  0  0
    2.5699    1.9132    0.3700 O   0  0  0  0  0  0  0  0  0  0  0  0
   -5.2701   -1.0883   -3.1624 O   0  0  0  0  0  0  0  0  0  0  0  0
   -0.8839   -1.1982   -4.6734 O   0  0  0  0  0  0  0  0  0  0  0  0
    0.2374   -0.4827   -5.2517 C   0  0  2  0  0  0  0  0  0  0  0  0
    0.7045    3.0938    6.2438 C   0  0  2  0  0  0  0  0  0  0  0  0
    1.7258    2.9328    0.9812 C   0  0  2  0  0  0  0  0  0  0  0  0
   -3.9008   -1.2344   -3.6200 C   0  0  2  0  0  0  0  0  0  0  0  0
    0.5258   -0.9620    2.9527 C   0  0  2  0  0  0  0  0  0  0  0  0
    4.0990    0.4457   -2.9103 C   0  0  2  0  0  0  0  0  0  0  0  0
   -4.3987   -0.1633   -0.1092 C   0  0  2  0  0  0  0  0  0  0  0  0
   -6.3234   -4.5321   -2.3526 O   0  0  0  0  0  0  0  0  0  0  0  0
   -3.1754   -3.4636    0.7951 O   0  0  0  0  0  0  0  0  0  0  0  0
   -2.0396   -0.3671    5.2668 O   0  0  0  0  0  0  0  0  0  0  0  0
    5.3051    2.2667    1.8757 O   0  0  0  0  0  0  0  0  0  0  0  0
    2.0814   -3.0144   -1.5600 O   0  0  0  0  0  0  0  0  0  0  0  0
    0.2457   -4.0289   -3.9299 O   0  0  0  0  0  0  0  0  0  0  0  0
    3.6375    0.8709    4.6627 O   0  0  0  0  0  0  0  0  0  0  0  0
    3.7804    5.3150    0.7331 O   0  0  0  0  0  0  0  0  0  0  0  0
   -5.9514   -1.6178    2.2996 O   0  0  0  0  0  0  0  0  0  0  0  0
    3.9112   -1.6152    0.2250 O   0  0  0  0  0  0  0  0  0  0  0  0
   -4.3860   -4.9109   -4.4687 O   0  0  0  0  0  0  0  0  0  0  0  0
   -0.7942    2.0792    2.8414 O   0  0  0  0  0  0  0  0  0  0  0  0
    3.4377    2.4946    7.7125 O   0  0  0  0  0  0  0  0  0  0  0  0
    1.1958   -2.7988   -7.1745 O   0  0  0  0  0  0  0  0  0  0  0  0
   -0.0202    0.1272   -6.6446 C   0  0  0  0  0  0  0  0  0  0  0  0
    1.7791   -0.4027    2.2703 C   0  0  0  0  0  0  0  0  0  0  0  0
   -5.0024    1.0788    0.5789 C   0  0  0  0  0  0  0  0  0  0  0  0
   -3.6735   -0.0305   -4.5440 C   0  0  0  0  0  0  0  0  0  0  0  0
    1.0059    3.8558   -0.0214 C   0  0  0  0  0  0  0  0  0  0  0  0
    0.8861    4.3150    7.1646 C   0  0  0  0  0  0  0  0  0  0  0  0
    5.1690    1.3824   -3.4862 C   0  0  0  0  0  0  0  0  0  0  0  0
   -4.1256    2.1942    0.4984 O   0  0  0  0  0  0  0  0  0  0  0  0
   -1.1471    0.9913   -6.6177 O   0  0  0  0  0  0  0  0  0  0  0  0
    4.8507    1.7351   -4.8261 O   0  0  0  0  0  0  0  0  0  0  0  0
   -3.6694    1.1802   -3.7984 O   0  0  0  0  0  0  0  0  0  0  0  0
    0.2663    5.4660    6.6095 O   0  0  0  0  0  0  0  0  0  0  0  0
    2.9293   -1.0815    2.7525 O   0  0  0  0  0  0  0  0  0  0  0  0
    0.2271    3.0937   -0.9330 O   0  0  0  0  0  0  0  0  0  0  0  0
  1 21  1  0  0  0  0
  1 23  1  0  0  0  0
  1 42  1  0  0  0  0
  2 41  1  0  0  0  0
  2 20  1  0  0  0  0
  2 26  1  0  0  0  0
  3 16  1  0  0  0  0
  3 22  1  0  0  0  0
  3 37  1  0  0  0  0
  4 36  1  0  0  0  0
  4 17  1  0  0  0  0
  4 25  1  0  0  0  0
  5 15  1  0  0  0  0
  5 27  1  0  0  0  0
  5 40  1  0  0  0  0
  6 38  1  0  0  0  0
  6 19  1  0  0  0  0
  6 24  1  0  0  0  0
  7 18  1  0  0  0  0
  7 28  1  0  0  0  0
  7 39  1  0  0  0  0
  8 43  1  0  0  0  0
  8 16  1  0  0  0  0
  8 31  1  0  0  0  0
  9 17  1  0  0  0  0
  9 29  1  0  0  0  0
  9 47  1  0  0  0  0
 10 20  1  0  0  0  0
 10 33  1  0  0  0  0
 10 49  1  0  0  0  0
 11 45  1  0  0  0  0
 11 18  1  0  0  0  0
 11 32  1  0  0  0  0
 12 21  1  0  0  0  0
 12 35  1  0  0  0  0
 12 46  1  0  0  0  0
 13 19  1  0  0  0  0
 13 44  1  0  0  0  0
 13 34  1  0  0  0  0
 14 48  1  0  0  0  0
 14 15  1  0  0  0  0
 14 30  1  0  0  0  0
 22 30  1  0  0  0  0
 22 54  1  0  0  0  0
 23 31  1  0  0  0  0
 23 55  1  0  0  0  0
 24 29  1  0  0  0  0
 24 52  1  0  0  0  0
 25 33  1  0  0  0  0
 25 51  1  0  0  0  0
 26 35  1  0  0  0  0
 26 50  1  0  0  0  0
 27 32  1  0  0  0  0
 27 53  1  0  0  0  0
 28 34  1  0  0  0  0
 28 56  1  0  0  0  0
 29 61  1  0  0  0  0
 30 59  1  0  0  0  0
 31 63  1  0  0  0  0
 32 57  1  0  0  0  0
 33 58  1  0  0  0  0
 34 62  1  0  0  0  0
 35 60  1  0  0  0  0
 36 49  1  0  0  0  0
 37 48  1  0  0  0  0
 38 47  1  0  0  0  0
 39 44  1  0  0  0  0
 40 45  1  0  0  0  0
 41 46  1  0  0  0  0
 42 43  1  0  0  0  0
 43 64  1  0  0  0  0
 44 69  1  0  0  0  0
 45 68  1  0  0  0  0
 46 67  1  0  0  0  0
 47 65  1  0  0  0  0
 48 70  1  0  0  0  0
 49 66  1  0  0  0  0
 64 72  1  0  0  0  0
 65 76  1  0  0  0  0
 66 71  1  0  0  0  0
 67 74  1  0  0  0  0
 68 77  1  0  0  0  0
 69 75  1  0  0  0  0
 70 73  1  0  0  0  0
M  END
